
     RDKit          3D

116123  0  0  0  0  0  0  0  0999 V2000
   28.3450   20.2080   16.9510 C   0  0  0  0  0  0  0  0  0  0  0  0
   25.5560   23.2100   10.3290 C   0  0  0  0  0  0  0  0  0  0  0  0
   26.6230   25.2470    9.5630 C   0  0  0  0  0  0  0  0  0  0  0  0
   27.1080   26.4500    8.8160 C   0  0  0  0  0  0  0  0  0  0  0  0
   25.9510   27.4130    8.5080 C   0  0  1  0  0  0  0  0  0  0  0  0
   24.0520   27.4570    6.9750 C   0  0  0  0  0  0  0  0  0  0  0  0
   23.6660   27.5250    5.5520 C   0  0  1  0  0  0  0  0  0  0  0  0
   22.1950   27.4950    5.2430 C   0  0  0  0  0  0  0  0  0  0  0  0
   22.9350   28.7690    5.0660 C   0  0  2  0  0  0  0  0  0  0  0  0
   23.1900   29.3340    3.6850 C   0  0  0  0  0  0  0  0  0  0  0  0
   26.4510   28.8440    8.6100 C   0  0  0  0  0  0  0  0  0  0  0  0
   27.2530   21.1880   17.2720 C   0  0  0  0  0  0  0  0  0  0  0  0
   27.0580   30.7390   10.1420 C   0  0  0  0  0  0  0  0  0  0  0  0
   28.1950   30.4900   11.1130 C   0  0  0  0  0  0  0  0  0  0  0  0
   27.6450   29.7710   12.3410 C   0  0  0  0  0  0  0  0  0  0  0  0
   26.8890   28.4880   11.9590 C   0  0  1  0  0  0  0  0  0  0  0  0
   26.2260   27.8910   13.1750 C   0  0  0  0  0  0  0  0  0  0  0  0
   26.5500   27.0850   15.3650 C   0  0  0  0  0  0  0  0  0  0  0  0
   27.7130   27.0160   16.3500 C   0  0  1  0  0  0  0  0  0  0  0  0
   28.5000   28.3270   16.3170 C   0  0  0  0  0  0  0  0  0  0  0  0
   27.1630   26.8120   17.7650 C   0  0  0  0  0  0  0  0  0  0  0  0
   28.6960   25.8980   15.9720 C   0  0  0  0  0  0  0  0  0  0  0  0
   27.1560   22.5770   15.1980 C   0  0  0  0  0  0  0  0  0  0  0  0
   28.1110   24.5140   15.9380 C   0  0  0  0  0  0  0  0  0  0  0  0
   28.0550   23.6000   16.9890 C   0  0  0  0  0  0  0  0  0  0  0  0
   28.5930   23.7770   18.3410 C   0  0  0  0  0  0  0  0  0  0  0  0
   27.7790   23.7910   19.4970 C   0  0  0  0  0  0  0  0  0  0  0  0
   29.6400   24.1410   20.8370 C   0  0  0  0  0  0  0  0  0  0  0  0
   30.4990   24.1520   19.7490 C   0  0  0  0  0  0  0  0  0  0  0  0
   29.9670   23.9530   18.4850 C   0  0  0  0  0  0  0  0  0  0  0  0
   32.7610   24.4670   18.7760 C   0  0  0  0  0  0  0  0  0  0  0  0
   33.9660   25.3250   19.0810 C   0  0  0  0  0  0  0  0  0  0  0  0
   35.8980   25.5640   20.4840 C   0  0  0  0  0  0  0  0  0  0  0  0
   27.5350   23.8720   14.7990 C   0  0  0  0  0  0  0  0  0  0  0  0
   33.7420   24.9990   21.4030 C   0  0  0  0  0  0  0  0  0  0  0  0
   32.5040   24.1450   21.2390 C   0  0  0  0  0  0  0  0  0  0  0  0
   26.2700   23.6200   19.4520 C   0  0  2  0  0  0  0  0  0  0  0  0
   25.6180   24.6880   20.3030 C   0  0  0  0  0  0  0  0  0  0  0  0
   24.5960   21.9760   19.8700 C   0  0  0  0  0  0  0  0  0  0  0  0
   27.2900   24.2740   13.4810 C   0  0  0  0  0  0  0  0  0  0  0  0
   26.6840   23.3830   12.6020 C   0  0  0  0  0  0  0  0  0  0  0  0
   26.3150   22.1120   13.0410 C   0  0  0  0  0  0  0  0  0  0  0  0
   26.5300   21.6850   14.3330 C   0  0  0  0  0  0  0  0  0  0  0  0
   26.3980   23.7940   11.2140 C   0  0  0  0  0  0  0  0  0  0  0  0
   27.4660   22.4320   16.5360 N   0  0  0  0  0  0  0  0  0  0  0  0
   25.3290   27.1270    7.2270 N   0  0  0  0  0  0  0  0  0  0  0  0
   26.4490   29.4320    9.8480 N   0  0  0  0  0  0  0  0  0  0  0  0
   25.8610   28.7490   10.9380 N   0  0  0  0  0  0  0  0  0  0  0  0
   28.3120   23.9690   20.7130 N   0  0  0  0  0  0  0  0  0  0  0  0
   31.8630   24.3080   19.9250 N   0  0  0  0  0  0  0  0  0  0  0  0
   34.6490   24.8310   20.2710 N   0  0  0  0  0  0  0  0  0  0  0  0
   27.0660   24.9190   10.7420 N   0  0  0  0  0  0  0  0  0  0  0  0
   23.2600   27.7620    7.8620 O   0  0  0  0  0  0  0  0  0  0  0  0
   26.8970   29.4480    7.6420 O   0  0  0  0  0  0  0  0  0  0  0  0
   25.0330   27.7470   13.3000 O   0  0  0  0  0  0  0  0  0  0  0  0
   27.1220   27.5490   14.1080 O   0  0  0  0  0  0  0  0  0  0  0  0
   25.9590   22.3450   20.0140 O   0  0  0  0  0  0  0  0  0  0  0  0
   25.3960   24.1980    8.9430 S   0  0  0  0  0  0  0  0  0  0  0  0
   28.7765   19.8207   17.8858 H   0  0  0  0  0  0  0  0  0  0  0  0
   27.9292   19.3743   16.3661 H   0  0  0  0  0  0  0  0  0  0  0  0
   29.1290   20.7112   16.3661 H   0  0  0  0  0  0  0  0  0  0  0  0
   25.0506   22.2446   10.4793 H   0  0  0  0  0  0  0  0  0  0  0  0
   27.8585   26.9736    9.4265 H   0  0  0  0  0  0  0  0  0  0  0  0
   27.5480   26.1167    7.8645 H   0  0  0  0  0  0  0  0  0  0  0  0
   25.1562   27.2693    9.2548 H   0  0  0  0  0  0  0  0  0  0  0  0
   24.5558   26.9667    5.2254 H   0  0  0  0  0  0  0  0  0  0  0  0
   21.8330   26.9463    4.3610 H   0  0  0  0  0  0  0  0  0  0  0  0
   21.2962   27.1978    5.8032 H   0  0  0  0  0  0  0  0  0  0  0  0
   22.8167   29.7967    5.4399 H   0  0  0  0  0  0  0  0  0  0  0  0
   23.6410   30.3332    3.7752 H   0  0  0  0  0  0  0  0  0  0  0  0
   23.8758   28.6702    3.1381 H   0  0  0  0  0  0  0  0  0  0  0  0
   22.2385   29.4091    3.1381 H   0  0  0  0  0  0  0  0  0  0  0  0
   26.2818   20.7576   16.9866 H   0  0  0  0  0  0  0  0  0  0  0  0
   27.2642   21.4004   18.3512 H   0  0  0  0  0  0  0  0  0  0  0  0
   26.3133   31.4091   10.5962 H   0  0  0  0  0  0  0  0  0  0  0  0
   27.4253   31.2167    9.2218 H   0  0  0  0  0  0  0  0  0  0  0  0
   28.9620   29.8655   10.6317 H   0  0  0  0  0  0  0  0  0  0  0  0
   28.6473   31.4471   11.4119 H   0  0  0  0  0  0  0  0  0  0  0  0
   28.4821   29.5072   13.0041 H   0  0  0  0  0  0  0  0  0  0  0  0
   26.9392   30.4469   12.8460 H   0  0  0  0  0  0  0  0  0  0  0  0
   27.6270   27.7844   11.5464 H   0  0  0  0  0  0  0  0  0  0  0  0
   26.0976   26.0907   15.2361 H   0  0  0  0  0  0  0  0  0  0  0  0
   25.7564   27.7580   15.7218 H   0  0  0  0  0  0  0  0  0  0  0  0
   28.7002   28.6605   17.3459 H   0  0  0  0  0  0  0  0  0  0  0  0
   29.4530   28.1694   15.7907 H   0  0  0  0  0  0  0  0  0  0  0  0
   27.9129   29.0940   15.7907 H   0  0  0  0  0  0  0  0  0  0  0  0
   27.9296   27.0963   18.5009 H   0  0  0  0  0  0  0  0  0  0  0  0
   26.2699   27.4387   17.9051 H   0  0  0  0  0  0  0  0  0  0  0  0
   26.8946   25.7545   17.9051 H   0  0  0  0  0  0  0  0  0  0  0  0
   29.0978   26.1220   14.9728 H   0  0  0  0  0  0  0  0  0  0  0  0
   29.4616   25.8857   16.7617 H   0  0  0  0  0  0  0  0  0  0  0  0
   30.0621   24.2787   21.8434 H   0  0  0  0  0  0  0  0  0  0  0  0
   30.6242   23.9342   17.6031 H   0  0  0  0  0  0  0  0  0  0  0  0
   32.1984   24.9330   17.9536 H   0  0  0  0  0  0  0  0  0  0  0  0
   33.1301   23.4663   18.5068 H   0  0  0  0  0  0  0  0  0  0  0  0
   34.6582   25.2959   18.2266 H   0  0  0  0  0  0  0  0  0  0  0  0
   33.6341   26.3582   19.2611 H   0  0  0  0  0  0  0  0  0  0  0  0
   36.0807   25.6712   21.5634 H   0  0  0  0  0  0  0  0  0  0  0  0
   36.7305   25.0112   20.0243 H   0  0  0  0  0  0  0  0  0  0  0  0
   35.8214   26.5604   20.0243 H   0  0  0  0  0  0  0  0  0  0  0  0
   33.4435   26.0556   21.4707 H   0  0  0  0  0  0  0  0  0  0  0  0
   34.2642   24.6859   22.3191 H   0  0  0  0  0  0  0  0  0  0  0  0
   32.7876   23.0893   21.3621 H   0  0  0  0  0  0  0  0  0  0  0  0
   31.7789   24.4670   22.0009 H   0  0  0  0  0  0  0  0  0  0  0  0
   25.9080   23.6986   18.4163 H   0  0  0  0  0  0  0  0  0  0  0  0
   25.7639   24.4490   21.3668 H   0  0  0  0  0  0  0  0  0  0  0  0
   26.0747   25.6637   20.0804 H   0  0  0  0  0  0  0  0  0  0  0  0
   24.5415   24.7277   20.0804 H   0  0  0  0  0  0  0  0  0  0  0  0
   24.1423   21.8532   20.8645 H   0  0  0  0  0  0  0  0  0  0  0  0
   24.0600   22.7614   19.3169 H   0  0  0  0  0  0  0  0  0  0  0  0
   24.5294   21.0275   19.3169 H   0  0  0  0  0  0  0  0  0  0  0  0
   27.5733   25.2823   13.1446 H   0  0  0  0  0  0  0  0  0  0  0  0
   25.8344   21.4247   12.3292 H   0  0  0  0  0  0  0  0  0  0  0  0
   26.2205   20.6833   14.6660 H   0  0  0  0  0  0  0  0  0  0  0  0
   25.8811   26.6595    6.4938 H   0  0  0  0  0  0  0  0  0  0  0  0
   25.1122   29.3283   11.3437 H   0  0  0  0  0  0  0  0  0  0  0  0
  4  3  1  0
  5  4  1  0
  7  6  1  0
  8  7  1  0
  9  8  1  0
  9  7  1  0
 10  9  1  0
 11  5  1  0
 12  1  1  0
 14 13  1  0
 15 14  1  0
 16 15  1  0
 17 16  1  0
 19 18  1  0
 19 20  1  1
 21 19  1  0
 22 19  1  0
 24 22  1  0
 25 24  2  0
 26 25  1  0
 27 26  2  0
 29 28  1  0
 30 29  2  0
 30 26  1  0
 32 31  1  0
 34 23  1  0
 34 24  1  0
 36 35  1  0
 37 27  1  0
 38 37  1  0
 40 34  2  0
 41 40  1  0
 42 41  2  0
 43 42  1  0
 43 23  2  0
 44  2  2  0
 44 41  1  0
 45 23  1  0
 45 12  1  0
 45 25  1  0
 46  6  1  0
 46  5  1  0
 47 13  1  0
 47 11  1  0
 48 47  1  0
 48 16  1  0
 49 28  2  0
 49 27  1  0
 50 36  1  0
 50 29  1  0
 50 31  1  0
 51 35  1  0
 51 33  1  0
 51 32  1  0
 52  3  2  0
 52 44  1  0
 53  6  2  0
 54 11  2  0
 55 17  2  0
 56 18  1  0
 56 17  1  0
 57 39  1  0
 57 37  1  0
 58  3  1  0
 58  2  1  0
  1 59  1  0
  1 60  1  0
  1 61  1  0
  2 62  1  0
  4 63  1  0
  4 64  1  0
  5 65  1  1
  7 66  1  6
  8 67  1  0
  8 68  1  0
  9 69  1  1
 10 70  1  0
 10 71  1  0
 10 72  1  0
 12 73  1  0
 12 74  1  0
 13 75  1  0
 13 76  1  0
 14 77  1  0
 14 78  1  0
 15 79  1  0
 15 80  1  0
 16 81  1  6
 18 82  1  0
 18 83  1  0
 20 84  1  0
 20 85  1  0
 20 86  1  0
 21 87  1  0
 21 88  1  0
 21 89  1  0
 22 90  1  0
 22 91  1  0
 28 92  1  0
 30 93  1  0
 31 94  1  0
 31 95  1  0
 32 96  1  0
 32 97  1  0
 33 98  1  0
 33 99  1  0
 33100  1  0
 35101  1  0
 35102  1  0
 36103  1  0
 36104  1  0
 37105  1  6
 38106  1  0
 38107  1  0
 38108  1  0
 39109  1  0
 39110  1  0
 39111  1  0
 40112  1  0
 42113  1  0
 43114  1  0
 46115  1  0
 48116  1  0
M  END
